5Case fpc/Qlim.out
Relatorio de Geracao de Potencia Reativa - Fluxo de Potencia Continuado
Barras em ordem crescente de reserva disponivel de Q
Sistema : FPC ANALYSES - 0.5% INC                                                         
 
 
Numero do incremento de carga:   1
Carregamento do sistema =     0.5000
Arquivo Historico: CONT_001.SAV          
Caso #02
X------------------X-----------------------------X------------X
      Barra          Geracao de Potencia Reativa  Carregamento 
 Num.      Nome        Min      Atual      Max         (%)     
X-----X------------X---------X---------X---------X------------X
 10501 MAUA3GUTE013    -75.00     67.24    120.00   56.0312       
 10503 MAUA3VUTE013    -82.00     67.05    131.00   51.1812       
 10436 PIEMANUTE013    -51.20     23.23     51.24   45.3263       
 10391 PIEPNGUTE013    -51.20     20.15     51.24   39.3260       
 10471 PIEJRQUTE013    -36.70     18.12     50.73   35.7149       
 10406 CROCHAUTE013    -51.20     13.95     51.24   27.2286       
 10411 BALBI1UHE013   -121.00    -31.10    120.60   25.7024       
 10447 PIETBQUTE013    -36.70      8.30     50.73   16.3531       
 10222 LE-S-ACAP500  -9999.00    359.25  99999.00    0.3592       
 
 
Numero do incremento de carga:   2
Carregamento do sistema =     1.0000
Arquivo Historico: CONT_001.SAV          
Caso #03
X------------------X-----------------------------X------------X
      Barra          Geracao de Potencia Reativa  Carregamento 
 Num.      Nome        Min      Atual      Max         (%)     
X-----X------------X---------X---------X---------X------------X
 10501 MAUA3GUTE013    -75.00     67.20    120.00   56.0040       
 10503 MAUA3VUTE013    -82.00     67.01    131.00   51.1554       
 10436 PIEMANUTE013    -51.20     23.23     51.24   45.3388       
 10391 PIEPNGUTE013    -51.20     20.33     51.24   39.6842       
 10471 PIEJRQUTE013    -36.70     18.15     50.73   35.7680       
 10406 CROCHAUTE013    -51.20     13.78     51.24   26.8993       
 10411 BALBI1UHE013   -121.00    -31.34    120.60   25.9019       
 10447 PIETBQUTE013    -36.70      8.59     50.73   16.9250       
 10222 LE-S-ACAP500  -9999.00    363.57  99999.00    0.3636       
 
 
Numero do incremento de carga:   3
Carregamento do sistema =     1.5000
Arquivo Historico: CONT_001.SAV          
Caso #04
X------------------X-----------------------------X------------X
      Barra          Geracao de Potencia Reativa  Carregamento 
 Num.      Nome        Min      Atual      Max         (%)     
X-----X------------X---------X---------X---------X------------X
 10501 MAUA3GUTE013    -75.00     67.17    120.00   55.9765       
 10503 MAUA3VUTE013    -82.00     66.98    131.00   51.1294       
 10436 PIEMANUTE013    -51.20     23.24     51.24   45.3512       
 10391 PIEPNGUTE013    -51.20     20.52     51.24   40.0426       
 10471 PIEJRQUTE013    -36.70     18.17     50.73   35.8211       
 10406 CROCHAUTE013    -51.20     13.61     51.24   26.5686       
 10411 BALBI1UHE013   -121.00    -31.58    120.60   26.1023       
 10447 PIETBQUTE013    -36.70      8.88     50.73   17.4989       
 10222 LE-S-ACAP500  -9999.00    367.91  99999.00    0.3679       
 
 
Numero do incremento de carga:   4
Carregamento do sistema =     2.0000
Arquivo Historico: CONT_001.SAV          
Caso #05
X------------------X-----------------------------X------------X
      Barra          Geracao de Potencia Reativa  Carregamento 
 Num.      Nome        Min      Atual      Max         (%)     
X-----X------------X---------X---------X---------X------------X
 10501 MAUA3GUTE013    -75.00     67.14    120.00   55.9487       
 10503 MAUA3VUTE013    -82.00     66.95    131.00   51.1032       
 10436 PIEMANUTE013    -51.20     23.24     51.24   45.3636       
 10391 PIEPNGUTE013    -51.20     20.70     51.24   40.4012       
 10471 PIEJRQUTE013    -36.70     18.20     50.73   35.8741       
 10411 BALBI1UHE013   -121.00    -31.83    120.60   26.3035       
 10406 CROCHAUTE013    -51.20     13.44     51.24   26.2366       
 10447 PIETBQUTE013    -36.70      9.17     50.73   18.0748       
 10222 LE-S-ACAP500  -9999.00    372.27  99999.00    0.3723       
 
 
Numero do incremento de carga:   5
Carregamento do sistema =     2.5000
Arquivo Historico: CONT_001.SAV          
Caso #06
X------------------X-----------------------------X------------X
      Barra          Geracao de Potencia Reativa  Carregamento 
 Num.      Nome        Min      Atual      Max         (%)     
X-----X------------X---------X---------X---------X------------X
 10501 MAUA3GUTE013    -75.00     67.10    120.00   55.9207       
 10503 MAUA3VUTE013    -82.00     66.91    131.00   51.0767       
 10436 PIEMANUTE013    -51.20     23.25     51.24   45.3760       
 10391 PIEPNGUTE013    -51.20     20.89     51.24   40.7601       
 10471 PIEJRQUTE013    -36.70     18.23     50.73   35.9272       
 10411 BALBI1UHE013   -121.00    -32.07    120.60   26.5055       
 10406 CROCHAUTE013    -51.20     13.27     51.24   25.9033       
 10447 PIETBQUTE013    -36.70      9.46     50.73   18.6527       
 10222 LE-S-ACAP500  -9999.00    376.64  99999.00    0.3766       
 
 
Numero do incremento de carga:   6
Carregamento do sistema =     3.0000
Arquivo Historico: CONT_001.SAV          
Caso #07
X------------------X-----------------------------X------------X
      Barra          Geracao de Potencia Reativa  Carregamento 
 Num.      Nome        Min      Atual      Max         (%)     
X-----X------------X---------X---------X---------X------------X
 10501 MAUA3GUTE013    -75.00     67.07    120.00   55.8924       
 10503 MAUA3VUTE013    -82.00     66.88    131.00   51.0500       
 10436 PIEMANUTE013    -51.20     23.26     51.24   45.3884       
 10391 PIEPNGUTE013    -51.20     21.07     51.24   41.1192       
 10471 PIEJRQUTE013    -36.70     18.25     50.73   35.9802       
 10411 BALBI1UHE013   -121.00    -32.32    120.60   26.7083       
 10406 CROCHAUTE013    -51.20     13.10     51.24   25.5687       
 10447 PIETBQUTE013    -36.70      9.76     50.73   19.2325       
 10222 LE-S-ACAP500  -9999.00    381.03  99999.00    0.3810       
 
 
Numero do incremento de carga:   7
Carregamento do sistema =     3.5000
Arquivo Historico: CONT_001.SAV          
Caso #08
X------------------X-----------------------------X------------X
      Barra          Geracao de Potencia Reativa  Carregamento 
 Num.      Nome        Min      Atual      Max         (%)     
X-----X------------X---------X---------X---------X------------X
 10501 MAUA3GUTE013    -75.00     67.04    120.00   55.8639       
 10503 MAUA3VUTE013    -82.00     66.84    131.00   51.0230       
 10436 PIEMANUTE013    -51.20     23.26     51.24   45.4007       
 10391 PIEPNGUTE013    -51.20     21.25     51.24   41.4785       
 10471 PIEJRQUTE013    -36.70     18.28     50.73   36.0331       
 10411 BALBI1UHE013   -121.00    -32.56    120.60   26.9120       
 10406 CROCHAUTE013    -51.20     12.93     51.24   25.2327       
 10447 PIETBQUTE013    -36.70     10.05     50.73   19.8143       
 10222 LE-S-ACAP500  -9999.00    385.43  99999.00    0.3854       
 
 
Numero do incremento de carga:   8
Carregamento do sistema =     4.0000
Arquivo Historico: CONT_001.SAV          
Caso #09
X------------------X-----------------------------X------------X
      Barra          Geracao de Potencia Reativa  Carregamento 
 Num.      Nome        Min      Atual      Max         (%)     
X-----X------------X---------X---------X---------X------------X
 10501 MAUA3GUTE013    -75.00     67.00    120.00   55.8351       
 10503 MAUA3VUTE013    -82.00     66.80    131.00   50.9958       
 10436 PIEMANUTE013    -51.20     23.27     51.24   45.4130       
 10391 PIEPNGUTE013    -51.20     21.44     51.24   41.8381       
 10471 PIEJRQUTE013    -36.70     18.31     50.73   36.0861       
 10411 BALBI1UHE013   -121.00    -32.81    120.60   27.1165       
 10406 CROCHAUTE013    -51.20     12.76     51.24   24.8955       
 10447 PIETBQUTE013    -36.70     10.35     50.73   20.3981       
 10222 LE-S-ACAP500  -9999.00    389.85  99999.00    0.3898       
 
 
Numero do incremento de carga:   9
Carregamento do sistema =     4.5000
Arquivo Historico: CONT_001.SAV          
Caso #10
X------------------X-----------------------------X------------X
      Barra          Geracao de Potencia Reativa  Carregamento 
 Num.      Nome        Min      Atual      Max         (%)     
X-----X------------X---------X---------X---------X------------X
 10501 MAUA3GUTE013    -75.00     66.97    120.00   55.8061       
 10503 MAUA3VUTE013    -82.00     66.77    131.00   50.9684       
 10436 PIEMANUTE013    -51.20     23.28     51.24   45.4253       
 10391 PIEPNGUTE013    -51.20     21.62     51.24   42.1979       
 10471 PIEJRQUTE013    -36.70     18.33     50.73   36.1390       
 10411 BALBI1UHE013   -121.00    -33.06    120.60   27.3218       
 10406 CROCHAUTE013    -51.20     12.58     51.24   24.5569       
 10447 PIETBQUTE013    -36.70     10.65     50.73   20.9839       
 10222 LE-S-ACAP500  -9999.00    394.28  99999.00    0.3943       
 
 
Numero do incremento de carga:  10
Carregamento do sistema =     5.0000
Arquivo Historico: CONT_001.SAV          
Caso #11
X------------------X-----------------------------X------------X
      Barra          Geracao de Potencia Reativa  Carregamento 
 Num.      Nome        Min      Atual      Max         (%)     
X-----X------------X---------X---------X---------X------------X
 10501 MAUA3GUTE013    -75.00     66.93    120.00   55.7768       
 10503 MAUA3VUTE013    -82.00     66.73    131.00   50.9407       
 10436 PIEMANUTE013    -51.20     23.28     51.24   45.4375       
 10391 PIEPNGUTE013    -51.20     21.81     51.24   42.5579       
 10471 PIEJRQUTE013    -36.70     18.36     50.73   36.1919       
 10411 BALBI1UHE013   -121.00    -33.31    120.60   27.5279       
 10406 CROCHAUTE013    -51.20     12.41     51.24   24.2170       
 10447 PIETBQUTE013    -36.70     10.94     50.73   21.5717       
 10222 LE-S-ACAP500  -9999.00    398.73  99999.00    0.3987       
 
 
Numero do incremento de carga:  11
Carregamento do sistema =     5.5000
Arquivo Historico: CONT_001.SAV          
Caso #12
X------------------X-----------------------------X------------X
      Barra          Geracao de Potencia Reativa  Carregamento 
 Num.      Nome        Min      Atual      Max         (%)     
X-----X------------X---------X---------X---------X------------X
 10501 MAUA3GUTE013    -75.00     66.90    120.00   55.7473       
 10503 MAUA3VUTE013    -82.00     66.70    131.00   50.9128       
 10436 PIEMANUTE013    -51.20     23.29     51.24   45.4497       
 10391 PIEPNGUTE013    -51.20     21.99     51.24   42.9182       
 10471 PIEJRQUTE013    -36.70     18.39     50.73   36.2447       
 10411 BALBI1UHE013   -121.00    -33.56    120.60   27.7349       
 10406 CROCHAUTE013    -51.20     12.23     51.24   23.8757       
 10447 PIETBQUTE013    -36.70     11.24     50.73   22.1616       
 10222 LE-S-ACAP500  -9999.00    403.19  99999.00    0.4032       
 
 
Numero do incremento de carga:  12
Carregamento do sistema =     6.0000
Arquivo Historico: CONT_001.SAV          
Caso #13
X------------------X-----------------------------X------------X
      Barra          Geracao de Potencia Reativa  Carregamento 
 Num.      Nome        Min      Atual      Max         (%)     
X-----X------------X---------X---------X---------X------------X
 10501 MAUA3GUTE013    -75.00     66.86    120.00   55.7175       
 10503 MAUA3VUTE013    -82.00     66.66    131.00   50.8846       
 10436 PIEMANUTE013    -51.20     23.29     51.24   45.4619       
 10391 PIEPNGUTE013    -51.20     22.18     51.24   43.2787       
 10471 PIEJRQUTE013    -36.70     18.41     50.73   36.2975       
 10411 BALBI1UHE013   -121.00    -33.81    120.60   27.9427       
 10406 CROCHAUTE013    -51.20     12.06     51.24   23.5332       
 10447 PIETBQUTE013    -36.70     11.54     50.73   22.7535       
 10222 LE-S-ACAP500  -9999.00    407.67  99999.00    0.4077       
 
 
Numero do incremento de carga:  13
Carregamento do sistema =     6.5000
Arquivo Historico: CONT_001.SAV          
Caso #14
X------------------X-----------------------------X------------X
      Barra          Geracao de Potencia Reativa  Carregamento 
 Num.      Nome        Min      Atual      Max         (%)     
X-----X------------X---------X---------X---------X------------X
 10501 MAUA3GUTE013    -75.00     66.82    120.00   55.6874       
 10503 MAUA3VUTE013    -82.00     66.62    131.00   50.8562       
 10436 PIEMANUTE013    -51.20     23.30     51.24   45.4740       
 10391 PIEPNGUTE013    -51.20     22.36     51.24   43.6394       
 10471 PIEJRQUTE013    -36.70     18.44     50.73   36.3503       
 10411 BALBI1UHE013   -121.00    -34.06    120.60   28.1514       
 10447 PIETBQUTE013    -36.70     11.84     50.73   23.3474       
 10406 CROCHAUTE013    -51.20     11.88     51.24   23.1893       
 10222 LE-S-ACAP500  -9999.00    412.16  99999.00    0.4122       
 
 
Numero do incremento de carga:  14
Carregamento do sistema =     7.0000
Arquivo Historico: CONT_001.SAV          
Caso #15
X------------------X-----------------------------X------------X
      Barra          Geracao de Potencia Reativa  Carregamento 
 Num.      Nome        Min      Atual      Max         (%)     
X-----X------------X---------X---------X---------X------------X
 10501 MAUA3GUTE013    -75.00     66.79    120.00   55.6571       
 10503 MAUA3VUTE013    -82.00     66.58    131.00   50.8276       
 10436 PIEMANUTE013    -51.20     23.31     51.24   45.4861       
 10391 PIEPNGUTE013    -51.20     22.55     51.24   44.0004       
 10471 PIEJRQUTE013    -36.70     18.47     50.73   36.4030       
 10411 BALBI1UHE013   -121.00    -34.32    120.60   28.3609       
 10447 PIETBQUTE013    -36.70     12.15     50.73   23.9434       
 10406 CROCHAUTE013    -51.20     11.71     51.24   22.8441       
 10222 LE-S-ACAP500  -9999.00    416.67  99999.00    0.4167       
 
 
Numero do incremento de carga:  15
Carregamento do sistema =     7.5000
Arquivo Historico: CONT_001.SAV          
Caso #16
X------------------X-----------------------------X------------X
      Barra          Geracao de Potencia Reativa  Carregamento 
 Num.      Nome        Min      Atual      Max         (%)     
X-----X------------X---------X---------X---------X------------X
 10501 MAUA3GUTE013    -75.00     66.75    120.00   55.6266       
 10503 MAUA3VUTE013    -82.00     66.55    131.00   50.7987       
 10436 PIEMANUTE013    -51.20     23.31     51.24   45.4981       
 10391 PIEPNGUTE013    -51.20     22.73     51.24   44.3616       
 10471 PIEJRQUTE013    -36.70     18.49     50.73   36.4557       
 10411 BALBI1UHE013   -121.00    -34.57    120.60   28.5712       
 10447 PIETBQUTE013    -36.70     12.45     50.73   24.5414       
 10406 CROCHAUTE013    -51.20     11.53     51.24   22.4975       
 10222 LE-S-ACAP500  -9999.00    421.19  99999.00    0.4212       
 
 
Numero do incremento de carga:  16
Carregamento do sistema =     8.0000
Arquivo Historico: CONT_001.SAV          
Caso #17
X------------------X-----------------------------X------------X
      Barra          Geracao de Potencia Reativa  Carregamento 
 Num.      Nome        Min      Atual      Max         (%)     
X-----X------------X---------X---------X---------X------------X
 10501 MAUA3GUTE013    -75.00     66.71    120.00   55.5957       
 10503 MAUA3VUTE013    -82.00     66.51    131.00   50.7695       
 10436 PIEMANUTE013    -51.20     23.32     51.24   45.5102       
 10391 PIEPNGUTE013    -51.20     22.92     51.24   44.7230       
 10471 PIEJRQUTE013    -36.70     18.52     50.73   36.5084       
 10411 BALBI1UHE013   -121.00    -34.83    120.60   28.7823       
 10447 PIETBQUTE013    -36.70     12.75     50.73   25.1415       
 10406 CROCHAUTE013    -51.20     11.35     51.24   22.1496       
 10222 LE-S-ACAP500  -9999.00    425.73  99999.00    0.4257       
 
 
Numero do incremento de carga:  17
Carregamento do sistema =     8.5000
Arquivo Historico: CONT_001.SAV          
Caso #18
X------------------X-----------------------------X------------X
      Barra          Geracao de Potencia Reativa  Carregamento 
 Num.      Nome        Min      Atual      Max         (%)     
X-----X------------X---------X---------X---------X------------X
 10501 MAUA3GUTE013    -75.00     66.68    120.00   55.5647       
 10503 MAUA3VUTE013    -82.00     66.47    131.00   50.7402       
 10436 PIEMANUTE013    -51.20     23.33     51.24   45.5221       
 10391 PIEPNGUTE013    -51.20     23.10     51.24   45.0847       
 10471 PIEJRQUTE013    -36.70     18.55     50.73   36.5610       
 10411 BALBI1UHE013   -121.00    -35.08    120.60   28.9943       
 10447 PIETBQUTE013    -36.70     13.06     50.73   25.7437       
 10406 CROCHAUTE013    -51.20     11.17     51.24   21.8004       
 10222 LE-S-ACAP500  -9999.00    430.29  99999.00    0.4303       
 
 
Numero do incremento de carga:  18
Carregamento do sistema =     9.0000
Arquivo Historico: CONT_001.SAV          
Caso #19
X------------------X-----------------------------X------------X
      Barra          Geracao de Potencia Reativa  Carregamento 
 Num.      Nome        Min      Atual      Max         (%)     
X-----X------------X---------X---------X---------X------------X
 10501 MAUA3GUTE013    -75.00     66.64    120.00   55.5333       
 10503 MAUA3VUTE013    -82.00     66.43    131.00   50.7105       
 10436 PIEMANUTE013    -51.20     23.33     51.24   45.5341       
 10391 PIEPNGUTE013    -51.20     23.29     51.24   45.4466       
 10471 PIEJRQUTE013    -36.70     18.57     50.73   36.6135       
 10411 BALBI1UHE013   -121.00    -35.34    120.60   29.2072       
 10447 PIETBQUTE013    -36.70     13.37     50.73   26.3480       
 10406 CROCHAUTE013    -51.20     10.99     51.24   21.4498       
 10222 LE-S-ACAP500  -9999.00    434.86  99999.00    0.4349       
 
 
Numero do incremento de carga:  19
Carregamento do sistema =     9.5000
Arquivo Historico: CONT_001.SAV          
Caso #20
X------------------X-----------------------------X------------X
      Barra          Geracao de Potencia Reativa  Carregamento 
 Num.      Nome        Min      Atual      Max         (%)     
X-----X------------X---------X---------X---------X------------X
 10501 MAUA3GUTE013    -75.00     66.60    120.00   55.5018       
 10503 MAUA3VUTE013    -82.00     66.39    131.00   50.6807       
 10391 PIEPNGUTE013    -51.20     23.47     51.24   45.8087       
 10436 PIEMANUTE013    -51.20     23.34     51.24   45.5460       
 10471 PIEJRQUTE013    -36.70     18.60     50.73   36.6661       
 10411 BALBI1UHE013   -121.00    -35.60    120.60   29.4208       
 10447 PIETBQUTE013    -36.70     13.67     50.73   26.9544       
 10406 CROCHAUTE013    -51.20     10.81     51.24   21.0979       
 10222 LE-S-ACAP500  -9999.00    439.45  99999.00    0.4395       
 
 
Numero do incremento de carga:  20
Carregamento do sistema =    10.0000
Arquivo Historico: CONT_001.SAV          
Caso #21
X------------------X-----------------------------X------------X
      Barra          Geracao de Potencia Reativa  Carregamento 
 Num.      Nome        Min      Atual      Max         (%)     
X-----X------------X---------X---------X---------X------------X
 10501 MAUA3GUTE013    -75.00     66.56    120.00   55.4699       
 10503 MAUA3VUTE013    -82.00     66.35    131.00   50.6506       
 10391 PIEPNGUTE013    -51.20     23.66     51.24   46.1711       
 10436 PIEMANUTE013    -51.20     23.34     51.24   45.5578       
 10471 PIEJRQUTE013    -36.70     18.63     50.73   36.7185       
 10411 BALBI1UHE013   -121.00    -35.86    120.60   29.6354       
 10447 PIETBQUTE013    -36.70     13.98     50.73   27.5628       
 10406 CROCHAUTE013    -51.20     10.63     51.24   20.7446       
 10222 LE-S-ACAP500  -9999.00    444.05  99999.00    0.4441       
 
 
Numero do incremento de carga:  21
Carregamento do sistema =    10.5000
Arquivo Historico: CONT_001.SAV          
Caso #22
X------------------X-----------------------------X------------X
      Barra          Geracao de Potencia Reativa  Carregamento 
 Num.      Nome        Min      Atual      Max         (%)     
X-----X------------X---------X---------X---------X------------X
 10501 MAUA3GUTE013    -75.00     66.53    120.00   55.4378       
 10503 MAUA3VUTE013    -82.00     66.31    131.00   50.6202       
 10391 PIEPNGUTE013    -51.20     23.84     51.24   46.5337       
 10436 PIEMANUTE013    -51.20     23.35     51.24   45.5696       
 10471 PIEJRQUTE013    -36.70     18.65     50.73   36.7709       
 10411 BALBI1UHE013   -121.00    -36.12    120.60   29.8507       
 10447 PIETBQUTE013    -36.70     14.29     50.73   28.1735       
 10406 CROCHAUTE013    -51.20     10.45     51.24   20.3900       
 10222 LE-S-ACAP500  -9999.00    448.67  99999.00    0.4487       
 
 
Numero do incremento de carga:  22
Carregamento do sistema =    11.0000
Arquivo Historico: CONT_001.SAV          
Caso #23
X------------------X-----------------------------X------------X
      Barra          Geracao de Potencia Reativa  Carregamento 
 Num.      Nome        Min      Atual      Max         (%)     
X-----X------------X---------X---------X---------X------------X
 10501 MAUA3GUTE013    -75.00     66.49    120.00   55.4055       
 10503 MAUA3VUTE013    -82.00     66.27    131.00   50.5897       
 10391 PIEPNGUTE013    -51.20     24.03     51.24   46.8965       
 10436 PIEMANUTE013    -51.20     23.36     51.24   45.5814       
 10471 PIEJRQUTE013    -36.70     18.68     50.73   36.8233       
 10411 BALBI1UHE013   -121.00    -36.38    120.60   30.0670       
 10447 PIETBQUTE013    -36.70     14.60     50.73   28.7862       
 10406 CROCHAUTE013    -51.20     10.27     51.24   20.0341       
 10222 LE-S-ACAP500  -9999.00    453.30  99999.00    0.4533       
 
 
Numero do incremento de carga:  23
Carregamento do sistema =    11.5000
Arquivo Historico: CONT_001.SAV          
Caso #24
X------------------X-----------------------------X------------X
      Barra          Geracao de Potencia Reativa  Carregamento 
 Num.      Nome        Min      Atual      Max         (%)     
X-----X------------X---------X---------X---------X------------X
 10501 MAUA3GUTE013    -75.00     66.45    120.00   55.3728       
 10503 MAUA3VUTE013    -82.00     66.23    131.00   50.5588       
 10391 PIEPNGUTE013    -51.20     24.22     51.24   47.2596       
 10436 PIEMANUTE013    -51.20     23.36     51.24   45.5931       
 10471 PIEJRQUTE013    -36.70     18.71     50.73   36.8756       
 10411 BALBI1UHE013   -121.00    -36.64    120.60   30.2840       
 10447 PIETBQUTE013    -36.70     14.92     50.73   29.4011       
 10406 CROCHAUTE013    -51.20     10.08     51.24   19.6768       
 10222 LE-S-ACAP500  -9999.00    457.95  99999.00    0.4580       
 
 
Numero do incremento de carga:  24
Carregamento do sistema =    12.0000
Arquivo Historico: CONT_001.SAV          
Caso #25
X------------------X-----------------------------X------------X
      Barra          Geracao de Potencia Reativa  Carregamento 
 Num.      Nome        Min      Atual      Max         (%)     
X-----X------------X---------X---------X---------X------------X
 10501 MAUA3GUTE013    -75.00     66.41    120.00   55.3400       
 10503 MAUA3VUTE013    -82.00     66.19    131.00   50.5277       
 10391 PIEPNGUTE013    -51.20     24.40     51.24   47.6229       
 10436 PIEMANUTE013    -51.20     23.37     51.24   45.6047       
 10471 PIEJRQUTE013    -36.70     18.73     50.73   36.9279       
 10411 BALBI1UHE013   -121.00    -36.91    120.60   30.5019       
 10447 PIETBQUTE013    -36.70     15.23     50.73   30.0181       
 10406 CROCHAUTE013    -51.20      9.90     51.24   19.3181       
 10222 LE-S-ACAP500  -9999.00    462.61  99999.00    0.4626       
 
 
Numero do incremento de carga:  25
Carregamento do sistema =    12.5000
Arquivo Historico: CONT_001.SAV          
Caso #26
X------------------X-----------------------------X------------X
      Barra          Geracao de Potencia Reativa  Carregamento 
 Num.      Nome        Min      Atual      Max         (%)     
X-----X------------X---------X---------X---------X------------X
 10501 MAUA3GUTE013    -75.00     66.37    120.00   55.3068       
 10503 MAUA3VUTE013    -82.00     66.15    131.00   50.4964       
 10391 PIEPNGUTE013    -51.20     24.59     51.24   47.9864       
 10436 PIEMANUTE013    -51.20     23.37     51.24   45.6163       
 10471 PIEJRQUTE013    -36.70     18.76     50.73   36.9801       
 10411 BALBI1UHE013   -121.00    -37.17    120.60   30.7207       
 10447 PIETBQUTE013    -36.70     15.54     50.73   30.6373       
 10406 CROCHAUTE013    -51.20      9.71     51.24   18.9581       
 10222 LE-S-ACAP500  -9999.00    467.30  99999.00    0.4673       
 
 
Numero do incremento de carga:  26
Carregamento do sistema =    13.0000
Arquivo Historico: CONT_001.SAV          
Caso #27
X------------------X-----------------------------X------------X
      Barra          Geracao de Potencia Reativa  Carregamento 
 Num.      Nome        Min      Atual      Max         (%)     
X-----X------------X---------X---------X---------X------------X
 10501 MAUA3GUTE013    -75.00     66.33    120.00   55.2735       
 10503 MAUA3VUTE013    -82.00     66.11    131.00   50.4649       
 10391 PIEPNGUTE013    -51.20     24.77     51.24   48.3502       
 10436 PIEMANUTE013    -51.20     23.38     51.24   45.6279       
 10471 PIEJRQUTE013    -36.70     18.79     50.73   37.0322       
 10447 PIETBQUTE013    -36.70     15.86     50.73   31.2587       
 10411 BALBI1UHE013   -121.00    -37.44    120.60   30.9403       
 10406 CROCHAUTE013    -51.20      9.53     51.24   18.5967       
 10222 LE-S-ACAP500  -9999.00    471.99  99999.00    0.4720       
 
 
Numero do incremento de carga:  27
Carregamento do sistema =    13.5000
Arquivo Historico: CONT_001.SAV          
Caso #28
X------------------X-----------------------------X------------X
      Barra          Geracao de Potencia Reativa  Carregamento 
 Num.      Nome        Min      Atual      Max         (%)     
X-----X------------X---------X---------X---------X------------X
 10501 MAUA3GUTE013    -75.00     66.29    120.00   55.2398       
 10503 MAUA3VUTE013    -82.00     66.07    131.00   50.4331       
 10391 PIEPNGUTE013    -51.20     24.96     51.24   48.7142       
 10436 PIEMANUTE013    -51.20     23.39     51.24   45.6394       
 10471 PIEJRQUTE013    -36.70     18.81     50.73   37.0843       
 10447 PIETBQUTE013    -36.70     16.17     50.73   31.8822       
 10411 BALBI1UHE013   -121.00    -37.70    120.60   31.1608       
 10406 CROCHAUTE013    -51.20      9.34     51.24   18.2339       
 10222 LE-S-ACAP500  -9999.00    476.70  99999.00    0.4767       
 
 
Numero do incremento de carga:  28
Carregamento do sistema =    14.0000
Arquivo Historico: CONT_001.SAV          
Caso #29
X------------------X-----------------------------X------------X
      Barra          Geracao de Potencia Reativa  Carregamento 
 Num.      Nome        Min      Atual      Max         (%)     
X-----X------------X---------X---------X---------X------------X
 10501 MAUA3GUTE013    -75.00     66.25    120.00   55.2059       
 10503 MAUA3VUTE013    -82.00     66.03    131.00   50.4010       
 10391 PIEPNGUTE013    -51.20     25.15     51.24   49.0784       
 10436 PIEMANUTE013    -51.20     23.39     51.24   45.6509       
 10471 PIEJRQUTE013    -36.70     18.84     50.73   37.1364       
 10447 PIETBQUTE013    -36.70     16.49     50.73   32.5079       
 10411 BALBI1UHE013   -121.00    -37.97    120.60   31.3821       
 10406 CROCHAUTE013    -51.20      9.16     51.24   17.8698       
 10222 LE-S-ACAP500  -9999.00    481.43  99999.00    0.4814       
 
 
Numero do incremento de carga:  29
Carregamento do sistema =    14.5000
Arquivo Historico: CONT_001.SAV          
Caso #30
X------------------X-----------------------------X------------X
      Barra          Geracao de Potencia Reativa  Carregamento 
 Num.      Nome        Min      Atual      Max         (%)     
X-----X------------X---------X---------X---------X------------X
 10501 MAUA3GUTE013    -75.00     66.21    120.00   55.1718       
 10503 MAUA3VUTE013    -82.00     65.98    131.00   50.3687       
 10391 PIEPNGUTE013    -51.20     25.33     51.24   49.4429       
 10436 PIEMANUTE013    -51.20     23.40     51.24   45.6623       
 10471 PIEJRQUTE013    -36.70     18.87     50.73   37.1884       
 10447 PIETBQUTE013    -36.70     16.81     50.73   33.1359       
 10411 BALBI1UHE013   -121.00    -38.24    120.60   31.6043       
 10406 CROCHAUTE013    -51.20      8.97     51.24   17.5043       
 10222 LE-S-ACAP500  -9999.00    486.18  99999.00    0.4862       
 
 
Numero do incremento de carga:  30
Carregamento do sistema =    15.0000
Arquivo Historico: CONT_001.SAV          
Caso #31
X------------------X-----------------------------X------------X
      Barra          Geracao de Potencia Reativa  Carregamento 
 Num.      Nome        Min      Atual      Max         (%)     
X-----X------------X---------X---------X---------X------------X
 10501 MAUA3GUTE013    -75.00     66.16    120.00   55.1373       
 10503 MAUA3VUTE013    -82.00     65.94    131.00   50.3362       
 10391 PIEPNGUTE013    -51.20     25.52     51.24   49.8076       
 10436 PIEMANUTE013    -51.20     23.40     51.24   45.6736       
 10471 PIEJRQUTE013    -36.70     18.89     50.73   37.2403       
 10447 PIETBQUTE013    -36.70     17.13     50.73   33.7660       
 10411 BALBI1UHE013   -121.00    -38.51    120.60   31.8274       
 10406 CROCHAUTE013    -51.20      8.78     51.24   17.1375       
 10222 LE-S-ACAP500  -9999.00    490.94  99999.00    0.4909       
 
 
Numero do incremento de carga:  31
Carregamento do sistema =    15.5000
Arquivo Historico: CONT_001.SAV          
Caso #32
X------------------X-----------------------------X------------X
      Barra          Geracao de Potencia Reativa  Carregamento 
 Num.      Nome        Min      Atual      Max         (%)     
X-----X------------X---------X---------X---------X------------X
 10501 MAUA3GUTE013    -75.00     66.12    120.00   55.1027       
 10503 MAUA3VUTE013    -82.00     65.90    131.00   50.3034       
 10391 PIEPNGUTE013    -51.20     25.71     51.24   50.1725       
 10436 PIEMANUTE013    -51.20     23.41     51.24   45.6849       
 10471 PIEJRQUTE013    -36.70     18.92     50.73   37.2921       
 10447 PIETBQUTE013    -36.70     17.45     50.73   34.3984       
 10411 BALBI1UHE013   -121.00    -38.78    120.60   32.0513       
 10406 CROCHAUTE013    -51.20      8.59     51.24   16.7693       
 10222 LE-S-ACAP500  -9999.00    495.72  99999.00    0.4957       
 
 
Numero do incremento de carga:  32
Carregamento do sistema =    16.0000
Arquivo Historico: CONT_001.SAV          
Caso #33
X------------------X-----------------------------X------------X
      Barra          Geracao de Potencia Reativa  Carregamento 
 Num.      Nome        Min      Atual      Max         (%)     
X-----X------------X---------X---------X---------X------------X
 10501 MAUA3GUTE013    -75.00     66.08    120.00   55.0677       
 10391 PIEPNGUTE013    -51.20     25.90     51.24   50.5377       
 10503 MAUA3VUTE013    -82.00     65.85    131.00   50.2704       
 10436 PIEMANUTE013    -51.20     23.41     51.24   45.6961       
 10471 PIEJRQUTE013    -36.70     18.94     50.73   37.3439       
 10447 PIETBQUTE013    -36.70     17.77     50.73   35.0330       
 10411 BALBI1UHE013   -121.00    -39.05    120.60   32.2761       
 10406 CROCHAUTE013    -51.20      8.40     51.24   16.3997       
 10222 LE-S-ACAP500  -9999.00    500.51  99999.00    0.5005       
 
 
Numero do incremento de carga:  33
Carregamento do sistema =    16.5000
Arquivo Historico: CONT_001.SAV          
Caso #34
X------------------X-----------------------------X------------X
      Barra          Geracao de Potencia Reativa  Carregamento 
 Num.      Nome        Min      Atual      Max         (%)     
X-----X------------X---------X---------X---------X------------X
 10501 MAUA3GUTE013    -75.00     66.04    120.00   55.0325       
 10391 PIEPNGUTE013    -51.20     26.08     51.24   50.9031       
 10503 MAUA3VUTE013    -82.00     65.81    131.00   50.2372       
 10436 PIEMANUTE013    -51.20     23.42     51.24   45.7073       
 10471 PIEJRQUTE013    -36.70     18.97     50.73   37.3956       
 10447 PIETBQUTE013    -36.70     18.10     50.73   35.6699       
 10411 BALBI1UHE013   -121.00    -39.33    120.60   32.5017       
 10406 CROCHAUTE013    -51.20      8.21     51.24   16.0287       
 10222 LE-S-ACAP500  -9999.00    505.32  99999.00    0.5053       
 
 
Numero do incremento de carga:  34
Carregamento do sistema =    17.0000
Arquivo Historico: CONT_001.SAV          
Caso #35
X------------------X-----------------------------X------------X
      Barra          Geracao de Potencia Reativa  Carregamento 
 Num.      Nome        Min      Atual      Max         (%)     
X-----X------------X---------X---------X---------X------------X
 10501 MAUA3GUTE013    -75.00     66.00    120.00   54.9971       
 10391 PIEPNGUTE013    -51.20     26.27     51.24   51.2687       
 10503 MAUA3VUTE013    -82.00     65.77    131.00   50.2036       
 10436 PIEMANUTE013    -51.20     23.43     51.24   45.7184       
 10471 PIEJRQUTE013    -36.70     19.00     50.73   37.4473       
 10447 PIETBQUTE013    -36.70     18.42     50.73   36.3090       
 10411 BALBI1UHE013   -121.00    -39.60    120.60   32.7282       
 10406 CROCHAUTE013    -51.20      8.02     51.24   15.6564       
 10222 LE-S-ACAP500  -9999.00    510.14  99999.00    0.5101       
 
 
Numero do incremento de carga:  35
Carregamento do sistema =    17.5000
Arquivo Historico: CONT_001.SAV          
Caso #36
X------------------X-----------------------------X------------X
      Barra          Geracao de Potencia Reativa  Carregamento 
 Num.      Nome        Min      Atual      Max         (%)     
X-----X------------X---------X---------X---------X------------X
 10501 MAUA3GUTE013    -75.00     65.95    120.00   54.9614       
 10391 PIEPNGUTE013    -51.20     26.46     51.24   51.6346       
 10503 MAUA3VUTE013    -82.00     65.72    131.00   50.1699       
 10436 PIEMANUTE013    -51.20     23.43     51.24   45.7294       
 10471 PIEJRQUTE013    -36.70     19.02     50.73   37.4988       
 10447 PIETBQUTE013    -36.70     18.74     50.73   36.9504       
 10411 BALBI1UHE013   -121.00    -39.88    120.60   32.9556       
 10406 CROCHAUTE013    -51.20      7.83     51.24   15.2826       
 10222 LE-S-ACAP500  -9999.00    514.98  99999.00    0.5150       
 
 
Numero do incremento de carga:  36
Carregamento do sistema =    18.0000
Arquivo Historico: CONT_001.SAV          
Caso #37
X------------------X-----------------------------X------------X
      Barra          Geracao de Potencia Reativa  Carregamento 
 Num.      Nome        Min      Atual      Max         (%)     
X-----X------------X---------X---------X---------X------------X
 10501 MAUA3GUTE013    -75.00     65.91    120.00   54.9254       
 10391 PIEPNGUTE013    -51.20     26.65     51.24   52.0006       
 10503 MAUA3VUTE013    -82.00     65.68    131.00   50.1359       
 10436 PIEMANUTE013    -51.20     23.44     51.24   45.7404       
 10447 PIETBQUTE013    -36.70     19.07     50.73   37.5940       
 10471 PIEJRQUTE013    -36.70     19.05     50.73   37.5504       
 10411 BALBI1UHE013   -121.00    -40.15    120.60   33.1838       
 10406 CROCHAUTE013    -51.20      7.64     51.24   14.9075       
 10222 LE-S-ACAP500  -9999.00    519.84  99999.00    0.5198       
 
 
Numero do incremento de carga:  37
Carregamento do sistema =    18.5000
Arquivo Historico: CONT_001.SAV          
Caso #38
X------------------X-----------------------------X------------X
      Barra          Geracao de Potencia Reativa  Carregamento 
 Num.      Nome        Min      Atual      Max         (%)     
X-----X------------X---------X---------X---------X------------X
 10501 MAUA3GUTE013    -75.00     65.87    120.00   54.8892       
 10391 PIEPNGUTE013    -51.20     26.83     51.24   52.3670       
 10503 MAUA3VUTE013    -82.00     65.63    131.00   50.1017       
 10436 PIEMANUTE013    -51.20     23.44     51.24   45.7513       
 10447 PIETBQUTE013    -36.70     19.40     50.73   38.2400       
 10471 PIEJRQUTE013    -36.70     19.08     50.73   37.6018       
 10411 BALBI1UHE013   -121.00    -40.43    120.60   33.4129       
 10406 CROCHAUTE013    -51.20      7.45     51.24   14.5310       
 10222 LE-S-ACAP500  -9999.00    524.71  99999.00    0.5247       
 
 
Numero do incremento de carga:  38
Carregamento do sistema =    19.0000
Arquivo Historico: CONT_001.SAV          
Caso #39
X------------------X-----------------------------X------------X
      Barra          Geracao de Potencia Reativa  Carregamento 
 Num.      Nome        Min      Atual      Max         (%)     
X-----X------------X---------X---------X---------X------------X
 10501 MAUA3GUTE013    -75.00     65.82    120.00   54.8527       
 10391 PIEPNGUTE013    -51.20     27.02     51.24   52.7335       
 10503 MAUA3VUTE013    -82.00     65.59    131.00   50.0672       
 10436 PIEMANUTE013    -51.20     23.45     51.24   45.7622       
 10447 PIETBQUTE013    -36.70     19.73     50.73   38.8883       
 10471 PIEJRQUTE013    -36.70     19.10     50.73   37.6531       
 10411 BALBI1UHE013   -121.00    -40.71    120.60   33.6429       
 10406 CROCHAUTE013    -51.20      7.25     51.24   14.1531       
 10222 LE-S-ACAP500  -9999.00    529.60  99999.00    0.5296       
 
 
Numero do incremento de carga:  39
Carregamento do sistema =    19.5000
Arquivo Historico: CONT_001.SAV          
Caso #40
X------------------X-----------------------------X------------X
      Barra          Geracao de Potencia Reativa  Carregamento 
 Num.      Nome        Min      Atual      Max         (%)     
X-----X------------X---------X---------X---------X------------X
 10501 MAUA3GUTE013    -75.00     65.78    120.00   54.8160       
 10391 PIEPNGUTE013    -51.20     27.21     51.24   53.1003       
 10503 MAUA3VUTE013    -82.00     65.54    131.00   50.0325       
 10436 PIEMANUTE013    -51.20     23.45     51.24   45.7729       
 10447 PIETBQUTE013    -36.70     20.06     50.73   39.5389       
 10471 PIEJRQUTE013    -36.70     19.13     50.73   37.7044       
 10411 BALBI1UHE013   -121.00    -40.99    120.60   33.8738       
 10406 CROCHAUTE013    -51.20      7.06     51.24   13.7738       
 10222 LE-S-ACAP500  -9999.00    534.51  99999.00    0.5345       
 
 
Numero do incremento de carga:  40
Carregamento do sistema =    20.0000
Arquivo Historico: CONT_001.SAV          
Caso #41
X------------------X-----------------------------X------------X
      Barra          Geracao de Potencia Reativa  Carregamento 
 Num.      Nome        Min      Atual      Max         (%)     
X-----X------------X---------X---------X---------X------------X
 10501 MAUA3GUTE013    -75.00     65.73    120.00   54.7790       
 10391 PIEPNGUTE013    -51.20     27.40     51.24   53.4673       
 10503 MAUA3VUTE013    -82.00     65.50    131.00   49.9975       
 10436 PIEMANUTE013    -51.20     23.46     51.24   45.7837       
 10447 PIETBQUTE013    -36.70     20.39     50.73   40.1918       
 10471 PIEJRQUTE013    -36.70     19.15     50.73   37.7556       
 10411 BALBI1UHE013   -121.00    -41.27    120.60   34.1055       
 10406 CROCHAUTE013    -51.20      6.86     51.24   13.3931       
 10222 LE-S-ACAP500  -9999.00    539.43  99999.00    0.5394       
 
 
Numero do incremento de carga:  41
Carregamento do sistema =    20.5000
Arquivo Historico: CONT_001.SAV          
Caso #42
X------------------X-----------------------------X------------X
      Barra          Geracao de Potencia Reativa  Carregamento 
 Num.      Nome        Min      Atual      Max         (%)     
X-----X------------X---------X---------X---------X------------X
 10501 MAUA3GUTE013    -75.00     65.69    120.00   54.7417       
 10391 PIEPNGUTE013    -51.20     27.58     51.24   53.8345       
 10503 MAUA3VUTE013    -82.00     65.45    131.00   49.9623       
 10436 PIEMANUTE013    -51.20     23.47     51.24   45.7943       
 10447 PIETBQUTE013    -36.70     20.72     50.73   40.8470       
 10471 PIEJRQUTE013    -36.70     19.18     50.73   37.8067       
 10411 BALBI1UHE013   -121.00    -41.55    120.60   34.3381       
 10406 CROCHAUTE013    -51.20      6.67     51.24   13.0111       
 10222 LE-S-ACAP500  -9999.00    544.37  99999.00    0.5444       
 
 
Numero do incremento de carga:  42
Carregamento do sistema =    21.0000
Arquivo Historico: CONT_001.SAV          
Caso #43
X------------------X-----------------------------X------------X
      Barra          Geracao de Potencia Reativa  Carregamento 
 Num.      Nome        Min      Atual      Max         (%)     
X-----X------------X---------X---------X---------X------------X
 10501 MAUA3GUTE013    -75.00     65.65    120.00   54.7042       
 10391 PIEPNGUTE013    -51.20     27.77     51.24   54.2020       
 10503 MAUA3VUTE013    -82.00     65.40    131.00   49.9268       
 10436 PIEMANUTE013    -51.20     23.47     51.24   45.8049       
 10447 PIETBQUTE013    -36.70     21.06     50.73   41.5046       
 10471 PIEJRQUTE013    -36.70     19.21     50.73   37.8578       
 10411 BALBI1UHE013   -121.00    -41.83    120.60   34.5716       
 10406 CROCHAUTE013    -51.20      6.47     51.24   12.6276       
 10222 LE-S-ACAP500  -9999.00    549.33  99999.00    0.5493       
 
 
Numero do incremento de carga:  43
Carregamento do sistema =    21.5000
Arquivo Historico: CONT_001.SAV          
Caso #44
X------------------X-----------------------------X------------X
      Barra          Geracao de Potencia Reativa  Carregamento 
 Num.      Nome        Min      Atual      Max         (%)     
X-----X------------X---------X---------X---------X------------X
 10501 MAUA3GUTE013    -75.00     65.60    120.00   54.6664       
 10391 PIEPNGUTE013    -51.20     27.96     51.24   54.5697       
 10503 MAUA3VUTE013    -82.00     65.36    131.00   49.8911       
 10436 PIEMANUTE013    -51.20     23.48     51.24   45.8154       
 10447 PIETBQUTE013    -36.70     21.39     50.73   42.1646       
 10471 PIEJRQUTE013    -36.70     19.23     50.73   37.9087       
 10411 BALBI1UHE013   -121.00    -42.12    120.60   34.8060       
 10406 CROCHAUTE013    -51.20      6.27     51.24   12.2427       
 10222 LE-S-ACAP500  -9999.00    554.30  99999.00    0.5543       
 
 
Numero do incremento de carga:  44
Carregamento do sistema =    22.0000
Arquivo Historico: CONT_001.SAV          
Caso #45
X------------------X-----------------------------X------------X
      Barra          Geracao de Potencia Reativa  Carregamento 
 Num.      Nome        Min      Atual      Max         (%)     
X-----X------------X---------X---------X---------X------------X
 10391 PIEPNGUTE013    -51.20     28.15     51.24   54.9376       
 10501 MAUA3GUTE013    -75.00     65.55    120.00   54.6284       
 10503 MAUA3VUTE013    -82.00     65.31    131.00   49.8551       
 10436 PIEMANUTE013    -51.20     23.48     51.24   45.8258       
 10447 PIETBQUTE013    -36.70     21.73     50.73   42.8269       
 10471 PIEJRQUTE013    -36.70     19.26     50.73   37.9596       
 10411 BALBI1UHE013   -121.00    -42.40    120.60   35.0412       
 10406 CROCHAUTE013    -51.20      6.08     51.24   11.8564       
 10222 LE-S-ACAP500  -9999.00    559.29  99999.00    0.5593       
 
 
Numero do incremento de carga:  45
Carregamento do sistema =    22.5000
Arquivo Historico: CONT_001.SAV          
Caso #46
X------------------X-----------------------------X------------X
      Barra          Geracao de Potencia Reativa  Carregamento 
 Num.      Nome        Min      Atual      Max         (%)     
X-----X------------X---------X---------X---------X------------X
 10391 PIEPNGUTE013    -51.20     28.34     51.24   55.3058       
 10501 MAUA3GUTE013    -75.00     65.51    120.00   54.5901       
 10503 MAUA3VUTE013    -82.00     65.26    131.00   49.8189       
 10436 PIEMANUTE013    -51.20     23.49     51.24   45.8361       
 10447 PIETBQUTE013    -36.70     22.06     50.73   43.4917       
 10471 PIEJRQUTE013    -36.70     19.28     50.73   38.0104       
 10411 BALBI1UHE013   -121.00    -42.69    120.60   35.2773       
 10406 CROCHAUTE013    -51.20      5.88     51.24   11.4687       
 10222 LE-S-ACAP500  -9999.00    564.29  99999.00    0.5643       
 
 
Numero do incremento de carga:  46
Carregamento do sistema =    23.0000
Arquivo Historico: CONT_001.SAV          
Caso #47
X------------------X-----------------------------X------------X
      Barra          Geracao de Potencia Reativa  Carregamento 
 Num.      Nome        Min      Atual      Max         (%)     
X-----X------------X---------X---------X---------X------------X
 10391 PIEPNGUTE013    -51.20     28.53     51.24   55.6742       
 10501 MAUA3GUTE013    -75.00     65.46    120.00   54.5516       
 10503 MAUA3VUTE013    -82.00     65.22    131.00   49.7825       
 10436 PIEMANUTE013    -51.20     23.49     51.24   45.8464       
 10447 PIETBQUTE013    -36.70     22.40     50.73   44.1588       
 10471 PIEJRQUTE013    -36.70     19.31     50.73   38.0611       
 10411 BALBI1UHE013   -121.00    -42.97    120.60   35.5144       
 10406 CROCHAUTE013    -51.20      5.68     51.24   11.0796       
 10222 LE-S-ACAP500  -9999.00    569.32  99999.00    0.5693       
 
 
Numero do incremento de carga:  47
Carregamento do sistema =    23.5000
Arquivo Historico: CONT_001.SAV          
Caso #48
X------------------X-----------------------------X------------X
      Barra          Geracao de Potencia Reativa  Carregamento 
 Num.      Nome        Min      Atual      Max         (%)     
X-----X------------X---------X---------X---------X------------X
 10391 PIEPNGUTE013    -51.20     28.72     51.24   56.0428       
 10501 MAUA3GUTE013    -75.00     65.42    120.00   54.5128       
 10503 MAUA3VUTE013    -82.00     65.17    131.00   49.7458       
 10436 PIEMANUTE013    -51.20     23.50     51.24   45.8566       
 10447 PIETBQUTE013    -36.70     22.74     50.73   44.8284       
 10471 PIEJRQUTE013    -36.70     19.33     50.73   38.1117       
 10411 BALBI1UHE013   -121.00    -43.26    120.60   35.7523       
 10406 CROCHAUTE013    -51.20      5.48     51.24   10.6891       
 10222 LE-S-ACAP500  -9999.00    574.35  99999.00    0.5744       
 
 
Numero do incremento de carga:  48
Carregamento do sistema =    24.0000
Arquivo Historico: CONT_001.SAV          
Caso #49
X------------------X-----------------------------X------------X
      Barra          Geracao de Potencia Reativa  Carregamento 
 Num.      Nome        Min      Atual      Max         (%)     
X-----X------------X---------X---------X---------X------------X
 10391 PIEPNGUTE013    -51.20     28.91     51.24   56.4116       
 10501 MAUA3GUTE013    -75.00     65.37    120.00   54.4737       
 10503 MAUA3VUTE013    -82.00     65.12    131.00   49.7089       
 10436 PIEMANUTE013    -51.20     23.50     51.24   45.8667       
 10447 PIETBQUTE013    -36.70     23.08     50.73   45.5004       
 10471 PIEJRQUTE013    -36.70     19.36     50.73   38.1622       
 10411 BALBI1UHE013   -121.00    -43.55    120.60   35.9911       
 10406 CROCHAUTE013    -51.20      5.28     51.24   10.2972       
 10222 LE-S-ACAP500  -9999.00    579.41  99999.00    0.5794       
 
 
Numero do incremento de carga:  49
Carregamento do sistema =    24.5000
Arquivo Historico: CONT_001.SAV          
Caso #50
X------------------X-----------------------------X------------X
      Barra          Geracao de Potencia Reativa  Carregamento 
 Num.      Nome        Min      Atual      Max         (%)     
X-----X------------X---------X---------X---------X------------X
 10391 PIEPNGUTE013    -51.20     29.09     51.24   56.7807       
 10501 MAUA3GUTE013    -75.00     65.32    120.00   54.4343       
 10503 MAUA3VUTE013    -82.00     65.07    131.00   49.6717       
 10447 PIETBQUTE013    -36.70     23.42     50.73   46.1748       
 10436 PIEMANUTE013    -51.20     23.51     51.24   45.8767       
 10471 PIEJRQUTE013    -36.70     19.39     50.73   38.2126       
 10411 BALBI1UHE013   -121.00    -43.84    120.60   36.2308       
 10406 CROCHAUTE013    -51.20      5.07     51.24    9.9038       
 10222 LE-S-ACAP500  -9999.00    584.48  99999.00    0.5845       
 
 
Numero do incremento de carga:  50
Carregamento do sistema =    25.0000
Arquivo Historico: CONT_001.SAV          
Caso #51
X------------------X-----------------------------X------------X
      Barra          Geracao de Potencia Reativa  Carregamento 
 Num.      Nome        Min      Atual      Max         (%)     
X-----X------------X---------X---------X---------X------------X
 10391 PIEPNGUTE013    -51.20     29.28     51.24   57.1500       
 10501 MAUA3GUTE013    -75.00     65.27    120.00   54.3948       
 10503 MAUA3VUTE013    -82.00     65.02    131.00   49.6343       
 10447 PIETBQUTE013    -36.70     23.77     50.73   46.8517       
 10436 PIEMANUTE013    -51.20     23.51     51.24   45.8867       
 10471 PIEJRQUTE013    -36.70     19.41     50.73   38.2629       
 10411 BALBI1UHE013   -121.00    -44.13    120.60   36.4714       
 10406 CROCHAUTE013    -51.20      4.87     51.24    9.5090       
 10222 LE-S-ACAP500  -9999.00    589.57  99999.00    0.5896       
 
 
Numero do incremento de carga:  51
Carregamento do sistema =    25.5000
Arquivo Historico: CONT_001.SAV          
Caso #52
X------------------X-----------------------------X------------X
      Barra          Geracao de Potencia Reativa  Carregamento 
 Num.      Nome        Min      Atual      Max         (%)     
X-----X------------X---------X---------X---------X------------X
 10391 PIEPNGUTE013    -51.20     29.47     51.24   57.5195       
 10501 MAUA3GUTE013    -75.00     65.23    120.00   54.3549       
 10503 MAUA3VUTE013    -82.00     64.97    131.00   49.5966       
 10447 PIETBQUTE013    -36.70     24.11     50.73   47.5310       
 10436 PIEMANUTE013    -51.20     23.52     51.24   45.8965       
 10471 PIEJRQUTE013    -36.70     19.44     50.73   38.3132       
 10411 BALBI1UHE013   -121.00    -44.42    120.60   36.7128       
 10406 CROCHAUTE013    -51.20      4.67     51.24    9.1128       
 10222 LE-S-ACAP500  -9999.00    594.68  99999.00    0.5947       
 
 
Numero do incremento de carga:  52
Carregamento do sistema =    26.0000
Arquivo Historico: CONT_001.SAV          
Caso #53
X------------------X-----------------------------X------------X
      Barra          Geracao de Potencia Reativa  Carregamento 
 Num.      Nome        Min      Atual      Max         (%)     
X-----X------------X---------X---------X---------X------------X
 10391 PIEPNGUTE013    -51.20     29.66     51.24   57.8893       
 10501 MAUA3GUTE013    -75.00     65.18    120.00   54.3148       
 10503 MAUA3VUTE013    -82.00     64.92    131.00   49.5587       
 10447 PIETBQUTE013    -36.70     24.46     50.73   48.2129       
 10436 PIEMANUTE013    -51.20     23.52     51.24   45.9063       
 10471 PIEJRQUTE013    -36.70     19.46     50.73   38.3633       
 10411 BALBI1UHE013   -121.00    -44.72    120.60   36.9552       
 10406 CROCHAUTE013    -51.20      4.47     51.24    8.7152       
 10222 LE-S-ACAP500  -9999.00    599.80  99999.00    0.5998       
 
 
Numero do incremento de carga:  53
Carregamento do sistema =    26.5000
Arquivo Historico: CONT_001.SAV          
Caso #54
X------------------X-----------------------------X------------X
      Barra          Geracao de Potencia Reativa  Carregamento 
 Num.      Nome        Min      Atual      Max         (%)     
X-----X------------X---------X---------X---------X------------X
 10391 PIEPNGUTE013    -51.20     29.85     51.24   58.2593       
 10501 MAUA3GUTE013    -75.00     65.13    120.00   54.2744       
 10503 MAUA3VUTE013    -82.00     64.87    131.00   49.5205       
 10447 PIETBQUTE013    -36.70     24.81     50.73   48.8972       
 10436 PIEMANUTE013    -51.20     23.53     51.24   45.9160       
 10471 PIEJRQUTE013    -36.70     19.49     50.73   38.4133       
 10411 BALBI1UHE013   -121.00    -45.01    120.60   37.1985       
 10406 CROCHAUTE013    -51.20      4.26     51.24    8.3161       
 10222 LE-S-ACAP500  -9999.00    604.94  99999.00    0.6049       
 
 
Numero do incremento de carga:  54
Carregamento do sistema =    27.0000
Arquivo Historico: CONT_001.SAV          
Caso #55
X------------------X-----------------------------X------------X
      Barra          Geracao de Potencia Reativa  Carregamento 
 Num.      Nome        Min      Atual      Max         (%)     
X-----X------------X---------X---------X---------X------------X
 10391 PIEPNGUTE013    -51.20     30.04     51.24   58.6295       
 10501 MAUA3GUTE013    -75.00     65.08    120.00   54.2338       
 10447 PIETBQUTE013    -36.70     25.15     50.73   49.5840       
 10503 MAUA3VUTE013    -82.00     64.82    131.00   49.4821       
 10436 PIEMANUTE013    -51.20     23.53     51.24   45.9256       
 10471 PIEJRQUTE013    -36.70     19.51     50.73   38.4632       
 10411 BALBI1UHE013   -121.00    -45.31    120.60   37.4427       
 10406 CROCHAUTE013    -51.20      4.06     51.24    7.9156       
 10222 LE-S-ACAP500  -9999.00    610.10  99999.00    0.6101       
 
 
Numero do incremento de carga:  55
Carregamento do sistema =    27.5000
Arquivo Historico: CONT_001.SAV          
Caso #56
X------------------X-----------------------------X------------X
      Barra          Geracao de Potencia Reativa  Carregamento 
 Num.      Nome        Min      Atual      Max         (%)     
X-----X------------X---------X---------X---------X------------X
 10391 PIEPNGUTE013    -51.20     30.23     51.24   58.9999       
 10501 MAUA3GUTE013    -75.00     65.03    120.00   54.1929       
 10447 PIETBQUTE013    -36.70     25.50     50.73   50.2734       
 10503 MAUA3VUTE013    -82.00     64.77    131.00   49.4435       
 10436 PIEMANUTE013    -51.20     23.54     51.24   45.9351       
 10471 PIEJRQUTE013    -36.70     19.54     50.73   38.5130       
 10411 BALBI1UHE013   -121.00    -45.60    120.60   37.6878       
 10406 CROCHAUTE013    -51.20      3.85     51.24    7.5137       
 10222 LE-S-ACAP500  -9999.00    615.27  99999.00    0.6153       
 
 
Numero do incremento de carga:  56
Carregamento do sistema =    28.0000
Arquivo Historico: CONT_001.SAV          
Caso #57
X------------------X-----------------------------X------------X
      Barra          Geracao de Potencia Reativa  Carregamento 
 Num.      Nome        Min      Atual      Max         (%)     
X-----X------------X---------X---------X---------X------------X
 10391 PIEPNGUTE013    -51.20     30.42     51.24   59.3706       
 10501 MAUA3GUTE013    -75.00     64.98    120.00   54.1517       
 10447 PIETBQUTE013    -36.70     25.85     50.73   50.9653       
 10503 MAUA3VUTE013    -82.00     64.72    131.00   49.4046       
 10436 PIEMANUTE013    -51.20     23.54     51.24   45.9445       
 10471 PIEJRQUTE013    -36.70     19.56     50.73   38.5627       
 10411 BALBI1UHE013   -121.00    -45.90    120.60   37.9338       
 10406 CROCHAUTE013    -51.20      3.64     51.24    7.1103       
 10222 LE-S-ACAP500  -9999.00    620.46  99999.00    0.6205       
 
 
Numero do incremento de carga:  57
Carregamento do sistema =    28.5000
Arquivo Historico: CONT_001.SAV          
Caso #58
X------------------X-----------------------------X------------X
      Barra          Geracao de Potencia Reativa  Carregamento 
 Num.      Nome        Min      Atual      Max         (%)     
X-----X------------X---------X---------X---------X------------X
 10391 PIEPNGUTE013    -51.20     30.61     51.24   59.7414       
 10501 MAUA3GUTE013    -75.00     64.93    120.00   54.1103       
 10447 PIETBQUTE013    -36.70     26.21     50.73   51.6597       
 10503 MAUA3VUTE013    -82.00     64.67    131.00   49.3654       
 10436 PIEMANUTE013    -51.20     23.55     51.24   45.9538       
 10471 PIEJRQUTE013    -36.70     19.59     50.73   38.6123       
 10411 BALBI1UHE013   -121.00    -46.20    120.60   38.1807       
 10406 CROCHAUTE013    -51.20      3.44     51.24    6.7055       
 10222 LE-S-ACAP500  -9999.00    625.67  99999.00    0.6257       
 
 
Numero do incremento de carga:  58
Carregamento do sistema =    29.0000
Arquivo Historico: CONT_001.SAV          
Caso #59
X------------------X-----------------------------X------------X
      Barra          Geracao de Potencia Reativa  Carregamento 
 Num.      Nome        Min      Atual      Max         (%)     
X-----X------------X---------X---------X---------X------------X
 10391 PIEPNGUTE013    -51.20     30.80     51.24   60.1125       
 10501 MAUA3GUTE013    -75.00     64.88    120.00   54.0687       
 10447 PIETBQUTE013    -36.70     26.56     50.73   52.3568       
 10503 MAUA3VUTE013    -82.00     64.62    131.00   49.3260       
 10436 PIEMANUTE013    -51.20     23.55     51.24   45.9630       
 10471 PIEJRQUTE013    -36.70     19.61     50.73   38.6618       
 10411 BALBI1UHE013   -121.00    -46.50    120.60   38.4285       
 10406 CROCHAUTE013    -51.20      3.23     51.24    6.2992       
 10222 LE-S-ACAP500  -9999.00    630.90  99999.00    0.6309       
 
 
Numero do incremento de carga:  59
Carregamento do sistema =    29.5000
Arquivo Historico: CONT_001.SAV          
Caso #60
X------------------X-----------------------------X------------X
      Barra          Geracao de Potencia Reativa  Carregamento 
 Num.      Nome        Min      Atual      Max         (%)     
X-----X------------X---------X---------X---------X------------X
 10391 PIEPNGUTE013    -51.20     30.99     51.24   60.4839       
 10501 MAUA3GUTE013    -75.00     64.83    120.00   54.0267       
 10447 PIETBQUTE013    -36.70     26.92     50.73   53.0564       
 10503 MAUA3VUTE013    -82.00     64.57    131.00   49.2864       
 10436 PIEMANUTE013    -51.20     23.56     51.24   45.9721       
 10471 PIEJRQUTE013    -36.70     19.64     50.73   38.7111       
 10411 BALBI1UHE013   -121.00    -46.80    120.60   38.6772       
 10406 CROCHAUTE013    -51.20      3.02     51.24    5.8915       
 10222 LE-S-ACAP500  -9999.00    636.14  99999.00    0.6361       
 
 
Numero do incremento de carga:  60
Carregamento do sistema =    30.0000
Arquivo Historico: CONT_001.SAV          
Caso #61
X------------------X-----------------------------X------------X
      Barra          Geracao de Potencia Reativa  Carregamento 
 Num.      Nome        Min      Atual      Max         (%)     
X-----X------------X---------X---------X---------X------------X
 10391 PIEPNGUTE013    -51.20     31.18     51.24   60.8554       
 10501 MAUA3GUTE013    -75.00     64.78    120.00   53.9845       
 10447 PIETBQUTE013    -36.70     27.27     50.73   53.7586       
 10503 MAUA3VUTE013    -82.00     64.51    131.00   49.2465       
 10436 PIEMANUTE013    -51.20     23.56     51.24   45.9811       
 10411 BALBI1UHE013   -121.00    -47.10    120.60   38.9268       
 10471 PIEJRQUTE013    -36.70     19.66     50.73   38.7604       
 10406 CROCHAUTE013    -51.20      2.81     51.24    5.4823       
 10222 LE-S-ACAP500  -9999.00    641.40  99999.00    0.6414       
 
 
Numero do incremento de carga:  61
Carregamento do sistema =    30.5000
Arquivo Historico: CONT_001.SAV          
Caso #62
X------------------X-----------------------------X------------X
      Barra          Geracao de Potencia Reativa  Carregamento 
 Num.      Nome        Min      Atual      Max         (%)     
X-----X------------X---------X---------X---------X------------X
 10391 PIEPNGUTE013    -51.20     31.37     51.24   61.2272       
 10447 PIETBQUTE013    -36.70     27.63     50.73   54.4634       
 10501 MAUA3GUTE013    -75.00     64.73    120.00   53.9421       
...